*SPEF "ieee 1481-1999"
*DESIGN "user_project_wrapper"
*DATE "11:11:11 Fri 11 11, 1111"
*VENDOR "OpenRCX"
*PROGRAM "Parallel Extraction"
*VERSION "1.0"
*DESIGN_FLOW "NAME_SCOPE LOCAL" "PIN_CAP NONE"
*DIVIDER /
*DELIMITER :
*BUS_DELIMITER []
*T_UNIT 1 NS
*C_UNIT 1 PF
*R_UNIT 1 OHM
*L_UNIT 1 HENRY

*NAME_MAP
*1 io_in[0]
*2 io_in[10]
*3 io_in[11]
*4 io_in[12]
*5 io_in[13]
*6 io_in[14]
*7 io_in[15]
*8 io_in[16]
*9 io_in[17]
*10 io_in[18]
*11 io_in[19]
*12 io_in[1]
*13 io_in[20]
*14 io_in[21]
*15 io_in[22]
*16 io_in[23]
*17 io_in[24]
*18 io_in[25]
*19 io_in[26]
*20 io_in[27]
*21 io_in[28]
*22 io_in[29]
*23 io_in[2]
*24 io_in[30]
*25 io_in[31]
*26 io_in[32]
*27 io_in[33]
*28 io_in[34]
*29 io_in[35]
*30 io_in[36]
*31 io_in[37]
*32 io_in[3]
*33 io_in[4]
*34 io_in[5]
*35 io_in[6]
*36 io_in[7]
*37 io_in[8]
*38 io_in[9]
*39 io_oeb[0]
*40 io_oeb[10]
*41 io_oeb[11]
*42 io_oeb[12]
*43 io_oeb[13]
*44 io_oeb[14]
*45 io_oeb[15]
*46 io_oeb[16]
*47 io_oeb[17]
*48 io_oeb[18]
*49 io_oeb[19]
*50 io_oeb[1]
*51 io_oeb[20]
*52 io_oeb[21]
*53 io_oeb[22]
*54 io_oeb[23]
*55 io_oeb[24]
*56 io_oeb[25]
*57 io_oeb[26]
*58 io_oeb[27]
*59 io_oeb[28]
*60 io_oeb[29]
*61 io_oeb[2]
*62 io_oeb[30]
*63 io_oeb[31]
*64 io_oeb[32]
*65 io_oeb[33]
*66 io_oeb[34]
*67 io_oeb[35]
*68 io_oeb[36]
*69 io_oeb[37]
*70 io_oeb[3]
*71 io_oeb[4]
*72 io_oeb[5]
*73 io_oeb[6]
*74 io_oeb[7]
*75 io_oeb[8]
*76 io_oeb[9]
*77 io_out[0]
*78 io_out[10]
*79 io_out[11]
*80 io_out[12]
*81 io_out[13]
*82 io_out[14]
*83 io_out[15]
*84 io_out[16]
*85 io_out[17]
*86 io_out[18]
*87 io_out[19]
*88 io_out[1]
*89 io_out[20]
*90 io_out[21]
*91 io_out[22]
*92 io_out[23]
*93 io_out[24]
*94 io_out[25]
*95 io_out[26]
*96 io_out[27]
*97 io_out[28]
*98 io_out[29]
*99 io_out[2]
*100 io_out[30]
*101 io_out[31]
*102 io_out[32]
*103 io_out[33]
*104 io_out[34]
*105 io_out[35]
*106 io_out[36]
*107 io_out[37]
*108 io_out[3]
*109 io_out[4]
*110 io_out[5]
*111 io_out[6]
*112 io_out[7]
*113 io_out[8]
*114 io_out[9]
*115 la_data_in[0]
*116 la_data_in[10]
*117 la_data_in[11]
*118 la_data_in[12]
*119 la_data_in[13]
*120 la_data_in[14]
*121 la_data_in[15]
*122 la_data_in[16]
*123 la_data_in[17]
*124 la_data_in[18]
*125 la_data_in[19]
*126 la_data_in[1]
*127 la_data_in[20]
*128 la_data_in[21]
*129 la_data_in[22]
*130 la_data_in[23]
*131 la_data_in[24]
*132 la_data_in[25]
*133 la_data_in[26]
*134 la_data_in[27]
*135 la_data_in[28]
*136 la_data_in[29]
*137 la_data_in[2]
*138 la_data_in[30]
*139 la_data_in[31]
*140 la_data_in[32]
*141 la_data_in[33]
*142 la_data_in[34]
*143 la_data_in[35]
*144 la_data_in[36]
*145 la_data_in[37]
*146 la_data_in[38]
*147 la_data_in[39]
*148 la_data_in[3]
*149 la_data_in[40]
*150 la_data_in[41]
*151 la_data_in[42]
*152 la_data_in[43]
*153 la_data_in[44]
*154 la_data_in[45]
*155 la_data_in[46]
*156 la_data_in[47]
*157 la_data_in[48]
*158 la_data_in[49]
*159 la_data_in[4]
*160 la_data_in[50]
*161 la_data_in[51]
*162 la_data_in[52]
*163 la_data_in[53]
*164 la_data_in[54]
*165 la_data_in[55]
*166 la_data_in[56]
*167 la_data_in[57]
*168 la_data_in[58]
*169 la_data_in[59]
*170 la_data_in[5]
*171 la_data_in[60]
*172 la_data_in[61]
*173 la_data_in[62]
*174 la_data_in[63]
*175 la_data_in[6]
*176 la_data_in[7]
*177 la_data_in[8]
*178 la_data_in[9]
*179 la_data_out[0]
*180 la_data_out[10]
*181 la_data_out[11]
*182 la_data_out[12]
*183 la_data_out[13]
*184 la_data_out[14]
*185 la_data_out[15]
*186 la_data_out[16]
*187 la_data_out[17]
*188 la_data_out[18]
*189 la_data_out[19]
*190 la_data_out[1]
*191 la_data_out[20]
*192 la_data_out[21]
*193 la_data_out[22]
*194 la_data_out[23]
*195 la_data_out[24]
*196 la_data_out[25]
*197 la_data_out[26]
*198 la_data_out[27]
*199 la_data_out[28]
*200 la_data_out[29]
*201 la_data_out[2]
*202 la_data_out[30]
*203 la_data_out[31]
*204 la_data_out[32]
*205 la_data_out[33]
*206 la_data_out[34]
*207 la_data_out[35]
*208 la_data_out[36]
*209 la_data_out[37]
*210 la_data_out[38]
*211 la_data_out[39]
*212 la_data_out[3]
*213 la_data_out[40]
*214 la_data_out[41]
*215 la_data_out[42]
*216 la_data_out[43]
*217 la_data_out[44]
*218 la_data_out[45]
*219 la_data_out[46]
*220 la_data_out[47]
*221 la_data_out[48]
*222 la_data_out[49]
*223 la_data_out[4]
*224 la_data_out[50]
*225 la_data_out[51]
*226 la_data_out[52]
*227 la_data_out[53]
*228 la_data_out[54]
*229 la_data_out[55]
*230 la_data_out[56]
*231 la_data_out[57]
*232 la_data_out[58]
*233 la_data_out[59]
*234 la_data_out[5]
*235 la_data_out[60]
*236 la_data_out[61]
*237 la_data_out[62]
*238 la_data_out[63]
*239 la_data_out[6]
*240 la_data_out[7]
*241 la_data_out[8]
*242 la_data_out[9]
*243 la_oenb[0]
*244 la_oenb[10]
*245 la_oenb[11]
*246 la_oenb[12]
*247 la_oenb[13]
*248 la_oenb[14]
*249 la_oenb[15]
*250 la_oenb[16]
*251 la_oenb[17]
*252 la_oenb[18]
*253 la_oenb[19]
*254 la_oenb[1]
*255 la_oenb[20]
*256 la_oenb[21]
*257 la_oenb[22]
*258 la_oenb[23]
*259 la_oenb[24]
*260 la_oenb[25]
*261 la_oenb[26]
*262 la_oenb[27]
*263 la_oenb[28]
*264 la_oenb[29]
*265 la_oenb[2]
*266 la_oenb[30]
*267 la_oenb[31]
*268 la_oenb[32]
*269 la_oenb[33]
*270 la_oenb[34]
*271 la_oenb[35]
*272 la_oenb[36]
*273 la_oenb[37]
*274 la_oenb[38]
*275 la_oenb[39]
*276 la_oenb[3]
*277 la_oenb[40]
*278 la_oenb[41]
*279 la_oenb[42]
*280 la_oenb[43]
*281 la_oenb[44]
*282 la_oenb[45]
*283 la_oenb[46]
*284 la_oenb[47]
*285 la_oenb[48]
*286 la_oenb[49]
*287 la_oenb[4]
*288 la_oenb[50]
*289 la_oenb[51]
*290 la_oenb[52]
*291 la_oenb[53]
*292 la_oenb[54]
*293 la_oenb[55]
*294 la_oenb[56]
*295 la_oenb[57]
*296 la_oenb[58]
*297 la_oenb[59]
*298 la_oenb[5]
*299 la_oenb[60]
*300 la_oenb[61]
*301 la_oenb[62]
*302 la_oenb[63]
*303 la_oenb[6]
*304 la_oenb[7]
*305 la_oenb[8]
*306 la_oenb[9]
*307 user_clock2
*308 user_irq[0]
*309 user_irq[1]
*310 user_irq[2]
*313 wb_clk_i
*314 wb_rst_i
*315 wbs_ack_o
*316 wbs_adr_i[0]
*317 wbs_adr_i[10]
*318 wbs_adr_i[11]
*319 wbs_adr_i[12]
*320 wbs_adr_i[13]
*321 wbs_adr_i[14]
*322 wbs_adr_i[15]
*323 wbs_adr_i[16]
*324 wbs_adr_i[17]
*325 wbs_adr_i[18]
*326 wbs_adr_i[19]
*327 wbs_adr_i[1]
*328 wbs_adr_i[20]
*329 wbs_adr_i[21]
*330 wbs_adr_i[22]
*331 wbs_adr_i[23]
*332 wbs_adr_i[24]
*333 wbs_adr_i[25]
*334 wbs_adr_i[26]
*335 wbs_adr_i[27]
*336 wbs_adr_i[28]
*337 wbs_adr_i[29]
*338 wbs_adr_i[2]
*339 wbs_adr_i[30]
*340 wbs_adr_i[31]
*341 wbs_adr_i[3]
*342 wbs_adr_i[4]
*343 wbs_adr_i[5]
*344 wbs_adr_i[6]
*345 wbs_adr_i[7]
*346 wbs_adr_i[8]
*347 wbs_adr_i[9]
*348 wbs_cyc_i
*349 wbs_dat_i[0]
*350 wbs_dat_i[10]
*351 wbs_dat_i[11]
*352 wbs_dat_i[12]
*353 wbs_dat_i[13]
*354 wbs_dat_i[14]
*355 wbs_dat_i[15]
*356 wbs_dat_i[16]
*357 wbs_dat_i[17]
*358 wbs_dat_i[18]
*359 wbs_dat_i[19]
*360 wbs_dat_i[1]
*361 wbs_dat_i[20]
*362 wbs_dat_i[21]
*363 wbs_dat_i[22]
*364 wbs_dat_i[23]
*365 wbs_dat_i[24]
*366 wbs_dat_i[25]
*367 wbs_dat_i[26]
*368 wbs_dat_i[27]
*369 wbs_dat_i[28]
*370 wbs_dat_i[29]
*371 wbs_dat_i[2]
*372 wbs_dat_i[30]
*373 wbs_dat_i[31]
*374 wbs_dat_i[3]
*375 wbs_dat_i[4]
*376 wbs_dat_i[5]
*377 wbs_dat_i[6]
*378 wbs_dat_i[7]
*379 wbs_dat_i[8]
*380 wbs_dat_i[9]
*381 wbs_dat_o[0]
*382 wbs_dat_o[10]
*383 wbs_dat_o[11]
*384 wbs_dat_o[12]
*385 wbs_dat_o[13]
*386 wbs_dat_o[14]
*387 wbs_dat_o[15]
*388 wbs_dat_o[16]
*389 wbs_dat_o[17]
*390 wbs_dat_o[18]
*391 wbs_dat_o[19]
*392 wbs_dat_o[1]
*393 wbs_dat_o[20]
*394 wbs_dat_o[21]
*395 wbs_dat_o[22]
*396 wbs_dat_o[23]
*397 wbs_dat_o[24]
*398 wbs_dat_o[25]
*399 wbs_dat_o[26]
*400 wbs_dat_o[27]
*401 wbs_dat_o[28]
*402 wbs_dat_o[29]
*403 wbs_dat_o[2]
*404 wbs_dat_o[30]
*405 wbs_dat_o[31]
*406 wbs_dat_o[3]
*407 wbs_dat_o[4]
*408 wbs_dat_o[5]
*409 wbs_dat_o[6]
*410 wbs_dat_o[7]
*411 wbs_dat_o[8]
*412 wbs_dat_o[9]
*413 wbs_sel_i[0]
*414 wbs_sel_i[1]
*415 wbs_sel_i[2]
*416 wbs_sel_i[3]
*417 wbs_stb_i
*418 wbs_we_i
*419 mprj

*PORTS
io_in[0] I
io_in[10] I
io_in[11] I
io_in[12] I
io_in[13] I
io_in[14] I
io_in[15] I
io_in[16] I
io_in[17] I
io_in[18] I
io_in[19] I
io_in[1] I
io_in[20] I
io_in[21] I
io_in[22] I
io_in[23] I
io_in[24] I
io_in[25] I
io_in[26] I
io_in[27] I
io_in[28] I
io_in[29] I
io_in[2] I
io_in[30] I
io_in[31] I
io_in[32] I
io_in[33] I
io_in[34] I
io_in[35] I
io_in[36] I
io_in[37] I
io_in[3] I
io_in[4] I
io_in[5] I
io_in[6] I
io_in[7] I
io_in[8] I
io_in[9] I
io_oeb[0] O
io_oeb[10] O
io_oeb[11] O
io_oeb[12] O
io_oeb[13] O
io_oeb[14] O
io_oeb[15] O
io_oeb[16] O
io_oeb[17] O
io_oeb[18] O
io_oeb[19] O
io_oeb[1] O
io_oeb[20] O
io_oeb[21] O
io_oeb[22] O
io_oeb[23] O
io_oeb[24] O
io_oeb[25] O
io_oeb[26] O
io_oeb[27] O
io_oeb[28] O
io_oeb[29] O
io_oeb[2] O
io_oeb[30] O
io_oeb[31] O
io_oeb[32] O
io_oeb[33] O
io_oeb[34] O
io_oeb[35] O
io_oeb[36] O
io_oeb[37] O
io_oeb[3] O
io_oeb[4] O
io_oeb[5] O
io_oeb[6] O
io_oeb[7] O
io_oeb[8] O
io_oeb[9] O
io_out[0] O
io_out[10] O
io_out[11] O
io_out[12] O
io_out[13] O
io_out[14] O
io_out[15] O
io_out[16] O
io_out[17] O
io_out[18] O
io_out[19] O
io_out[1] O
io_out[20] O
io_out[21] O
io_out[22] O
io_out[23] O
io_out[24] O
io_out[25] O
io_out[26] O
io_out[27] O
io_out[28] O
io_out[29] O
io_out[2] O
io_out[30] O
io_out[31] O
io_out[32] O
io_out[33] O
io_out[34] O
io_out[35] O
io_out[36] O
io_out[37] O
io_out[3] O
io_out[4] O
io_out[5] O
io_out[6] O
io_out[7] O
io_out[8] O
io_out[9] O
la_data_in[0] I
la_data_in[10] I
la_data_in[11] I
la_data_in[12] I
la_data_in[13] I
la_data_in[14] I
la_data_in[15] I
la_data_in[16] I
la_data_in[17] I
la_data_in[18] I
la_data_in[19] I
la_data_in[1] I
la_data_in[20] I
la_data_in[21] I
la_data_in[22] I
la_data_in[23] I
la_data_in[24] I
la_data_in[25] I
la_data_in[26] I
la_data_in[27] I
la_data_in[28] I
la_data_in[29] I
la_data_in[2] I
la_data_in[30] I
la_data_in[31] I
la_data_in[32] I
la_data_in[33] I
la_data_in[34] I
la_data_in[35] I
la_data_in[36] I
la_data_in[37] I
la_data_in[38] I
la_data_in[39] I
la_data_in[3] I
la_data_in[40] I
la_data_in[41] I
la_data_in[42] I
la_data_in[43] I
la_data_in[44] I
la_data_in[45] I
la_data_in[46] I
la_data_in[47] I
la_data_in[48] I
la_data_in[49] I
la_data_in[4] I
la_data_in[50] I
la_data_in[51] I
la_data_in[52] I
la_data_in[53] I
la_data_in[54] I
la_data_in[55] I
la_data_in[56] I
la_data_in[57] I
la_data_in[58] I
la_data_in[59] I
la_data_in[5] I
la_data_in[60] I
la_data_in[61] I
la_data_in[62] I
la_data_in[63] I
la_data_in[6] I
la_data_in[7] I
la_data_in[8] I
la_data_in[9] I
la_data_out[0] O
la_data_out[10] O
la_data_out[11] O
la_data_out[12] O
la_data_out[13] O
la_data_out[14] O
la_data_out[15] O
la_data_out[16] O
la_data_out[17] O
la_data_out[18] O
la_data_out[19] O
la_data_out[1] O
la_data_out[20] O
la_data_out[21] O
la_data_out[22] O
la_data_out[23] O
la_data_out[24] O
la_data_out[25] O
la_data_out[26] O
la_data_out[27] O
la_data_out[28] O
la_data_out[29] O
la_data_out[2] O
la_data_out[30] O
la_data_out[31] O
la_data_out[32] O
la_data_out[33] O
la_data_out[34] O
la_data_out[35] O
la_data_out[36] O
la_data_out[37] O
la_data_out[38] O
la_data_out[39] O
la_data_out[3] O
la_data_out[40] O
la_data_out[41] O
la_data_out[42] O
la_data_out[43] O
la_data_out[44] O
la_data_out[45] O
la_data_out[46] O
la_data_out[47] O
la_data_out[48] O
la_data_out[49] O
la_data_out[4] O
la_data_out[50] O
la_data_out[51] O
la_data_out[52] O
la_data_out[53] O
la_data_out[54] O
la_data_out[55] O
la_data_out[56] O
la_data_out[57] O
la_data_out[58] O
la_data_out[59] O
la_data_out[5] O
la_data_out[60] O
la_data_out[61] O
la_data_out[62] O
la_data_out[63] O
la_data_out[6] O
la_data_out[7] O
la_data_out[8] O
la_data_out[9] O
la_oenb[0] I
la_oenb[10] I
la_oenb[11] I
la_oenb[12] I
la_oenb[13] I
la_oenb[14] I
la_oenb[15] I
la_oenb[16] I
la_oenb[17] I
la_oenb[18] I
la_oenb[19] I
la_oenb[1] I
la_oenb[20] I
la_oenb[21] I
la_oenb[22] I
la_oenb[23] I
la_oenb[24] I
la_oenb[25] I
la_oenb[26] I
la_oenb[27] I
la_oenb[28] I
la_oenb[29] I
la_oenb[2] I
la_oenb[30] I
la_oenb[31] I
la_oenb[32] I
la_oenb[33] I
la_oenb[34] I
la_oenb[35] I
la_oenb[36] I
la_oenb[37] I
la_oenb[38] I
la_oenb[39] I
la_oenb[3] I
la_oenb[40] I
la_oenb[41] I
la_oenb[42] I
la_oenb[43] I
la_oenb[44] I
la_oenb[45] I
la_oenb[46] I
la_oenb[47] I
la_oenb[48] I
la_oenb[49] I
la_oenb[4] I
la_oenb[50] I
la_oenb[51] I
la_oenb[52] I
la_oenb[53] I
la_oenb[54] I
la_oenb[55] I
la_oenb[56] I
la_oenb[57] I
la_oenb[58] I
la_oenb[59] I
la_oenb[5] I
la_oenb[60] I
la_oenb[61] I
la_oenb[62] I
la_oenb[63] I
la_oenb[6] I
la_oenb[7] I
la_oenb[8] I
la_oenb[9] I
user_clock2 I
user_irq[0] O
user_irq[1] O
user_irq[2] O
wb_clk_i I
wb_rst_i I
wbs_ack_o O
wbs_adr_i[0] I
wbs_adr_i[10] I
wbs_adr_i[11] I
wbs_adr_i[12] I
wbs_adr_i[13] I
wbs_adr_i[14] I
wbs_adr_i[15] I
wbs_adr_i[16] I
wbs_adr_i[17] I
wbs_adr_i[18] I
wbs_adr_i[19] I
wbs_adr_i[1] I
wbs_adr_i[20] I
wbs_adr_i[21] I
wbs_adr_i[22] I
wbs_adr_i[23] I
wbs_adr_i[24] I
wbs_adr_i[25] I
wbs_adr_i[26] I
wbs_adr_i[27] I
wbs_adr_i[28] I
wbs_adr_i[29] I
wbs_adr_i[2] I
wbs_adr_i[30] I
wbs_adr_i[31] I
wbs_adr_i[3] I
wbs_adr_i[4] I
wbs_adr_i[5] I
wbs_adr_i[6] I
wbs_adr_i[7] I
wbs_adr_i[8] I
wbs_adr_i[9] I
wbs_cyc_i I
wbs_dat_i[0] I
wbs_dat_i[10] I
wbs_dat_i[11] I
wbs_dat_i[12] I
wbs_dat_i[13] I
wbs_dat_i[14] I
wbs_dat_i[15] I
wbs_dat_i[16] I
wbs_dat_i[17] I
wbs_dat_i[18] I
wbs_dat_i[19] I
wbs_dat_i[1] I
wbs_dat_i[20] I
wbs_dat_i[21] I
wbs_dat_i[22] I
wbs_dat_i[23] I
wbs_dat_i[24] I
wbs_dat_i[25] I
wbs_dat_i[26] I
wbs_dat_i[27] I
wbs_dat_i[28] I
wbs_dat_i[29] I
wbs_dat_i[2] I
wbs_dat_i[30] I
wbs_dat_i[31] I
wbs_dat_i[3] I
wbs_dat_i[4] I
wbs_dat_i[5] I
wbs_dat_i[6] I
wbs_dat_i[7] I
wbs_dat_i[8] I
wbs_dat_i[9] I
wbs_dat_o[0] O
wbs_dat_o[10] O
wbs_dat_o[11] O
wbs_dat_o[12] O
wbs_dat_o[13] O
wbs_dat_o[14] O
wbs_dat_o[15] O
wbs_dat_o[16] O
wbs_dat_o[17] O
wbs_dat_o[18] O
wbs_dat_o[19] O
wbs_dat_o[1] O
wbs_dat_o[20] O
wbs_dat_o[21] O
wbs_dat_o[22] O
wbs_dat_o[23] O
wbs_dat_o[24] O
wbs_dat_o[25] O
wbs_dat_o[26] O
wbs_dat_o[27] O
wbs_dat_o[28] O
wbs_dat_o[29] O
wbs_dat_o[2] O
wbs_dat_o[30] O
wbs_dat_o[31] O
wbs_dat_o[3] O
wbs_dat_o[4] O
wbs_dat_o[5] O
wbs_dat_o[6] O
wbs_dat_o[7] O
wbs_dat_o[8] O
wbs_dat_o[9] O
wbs_sel_i[0] I
wbs_sel_i[1] I
wbs_sel_i[2] I
wbs_sel_i[3] I
wbs_stb_i I
wbs_we_i I

*D_NET *1 0.581661
*CONN
*P io_in[0] I
*I *419:io_in[0] I *D aes_core
*CAP
1 io_in[0] 0.00012069
2 *419:io_in[0] 0
3 *1:15 0.00818193
4 *1:14 0.00818193
5 *1:12 0.0453408
6 *1:11 0.0454615
7 *1:12 *12:11 0.000140038
8 *1:12 *33:14 0.00443967
9 *1:12 *33:16 0.051354
10 *1:12 *50:15 0.299384
11 *1:12 *51:15 0
12 *1:12 *78:25 0.0531389
13 *1:15 *419:la_oenb[26] 0.00379926
14 *1:15 *2:11 0.0191024
15 *1:15 *8:20 0.0107428
16 *1:15 *43:28 0
17 *1:15 *225:18 0.00106233
18 *1:15 *225:20 0
19 *1:15 *231:5 0.0312104
*RES
1 io_in[0] *1:11 5.805 
2 *1:11 *1:12 925.29 
3 *1:12 *1:14 4.5 
4 *1:14 *1:15 183.33 
5 *1:15 *419:io_in[0] 4.5 
*END

*D_NET *2 0.444521
*CONN
*P io_in[10] I
*I *419:io_in[10] I *D aes_core
*CAP
1 io_in[10] 0.000594981
2 *419:io_in[10] 0.000124264
3 *2:11 0.00841416
4 *2:10 0.0082899
5 *2:8 0.000571857
6 *2:7 0.00116684
7 *419:io_in[10] *47:13 0
8 *2:8 *9:15 0.101974
9 *2:8 *13:11 0.00510887
10 *2:8 *35:8 0.113302
11 *2:11 *8:20 0.016773
12 *2:11 *73:10 0.000464246
13 *2:11 *208:8 0.0481026
14 *2:11 *231:5 0.031159
15 *2:11 *293:14 0.00353283
16 *2:11 *316:22 0.0858398
17 *1:15 *2:11 0.0191024
*RES
1 io_in[10] *2:7 7.425 
2 *2:7 *2:8 288.63 
3 *2:8 *2:10 4.5 
4 *2:10 *2:11 363.33 
5 *2:11 *419:io_in[10] 5.355 
*END

*D_NET *3 0.269145
*CONN
*P io_in[11] I
*I *419:io_in[11] I *D aes_core
*CAP
1 io_in[11] 0.000894018
2 *419:io_in[11] 0.000776749
3 *3:14 0.0076091
4 *3:13 0.00683235
5 *3:11 0.0429878
6 *3:10 0.0429878
7 *3:8 0.0116575
8 *3:7 0.0125515
9 *3:7 *198:18 0.00282216
10 *3:8 io_out[14] 0.00312984
11 *3:8 *5:8 0.049901
12 *3:8 *34:8 0.0150057
13 *3:8 *43:31 0.0197736
14 *3:8 *134:11 0.00116487
15 *3:8 *229:15 0
16 *3:11 *419:io_in[12] 0.00457065
17 *3:11 *34:11 0
18 *3:11 *141:26 0.00174437
19 *3:11 *214:9 0
20 *3:11 *359:16 0.0100113
21 *3:11 *368:8 0.0139816
22 *3:14 *8:41 0.0167248
23 *3:14 *43:13 0.0040184
*RES
1 io_in[11] *3:7 12.465 
2 *3:7 *3:8 220.41 
3 *3:8 *3:10 4.5 
4 *3:10 *3:11 415.17 
5 *3:11 *3:13 4.5 
6 *3:13 *3:14 95.67 
7 *3:14 *419:io_in[11] 18.54 
*END

*D_NET *4 0.132837
*CONN
*P io_in[12] I
*I *419:io_in[12] I *D aes_core
*CAP
1 io_in[12] 0.000638081
2 *419:io_in[12] 0.00175337
3 *4:8 0.00194896
4 *4:7 0.000833663
5 *419:io_in[12] *34:11 0
6 *419:io_in[12] *80:9 0
7 *419:io_in[12] *214:9 0.000128499
8 *4:8 *35:8 0.0615498
9 *4:8 *42:11 0.0448758
10 *4:8 *70:11 0.000110012
11 *4:8 *151:11 0.0164281
12 *3:11 *419:io_in[12] 0.00457065
*RES
1 io_in[12] *4:7 7.785 
2 *4:7 *4:8 156.87 
3 *4:8 *419:io_in[12] 21.555 
*END

*D_NET *5 0.390715
*CONN
*P io_in[13] I
*I *419:io_in[13] I *D aes_core
*CAP
1 io_in[13] 0.00142657
2 *419:io_in[13] 0.000953715
3 *5:14 0.00243028
4 *5:11 0.0363401
5 *5:10 0.0348635
6 *5:8 0.00766271
7 *5:7 0.00908928
8 *5:8 io_out[8] 0.000265968
9 *5:8 *34:8 0.127088
10 *5:8 *114:17 0.0335074
11 *5:8 *134:11 0
12 *5:8 *182:15 0.00078278
13 *5:8 *322:15 0.00154649
14 *5:8 *331:19 0.0034908
15 *5:11 *149:16 0.0314315
16 *5:11 *182:18 0
17 *5:11 *208:14 0.0283751
18 *5:11 *259:14 0.000105234
19 *5:11 *263:16 0.000129173
20 *5:14 *18:16 0.00618699
21 *5:14 *65:21 0.000850731
22 *5:14 *221:11 0.0142872
23 *3:8 *5:8 0.049901
*RES
1 io_in[13] *5:7 12.645 
2 *5:7 *5:8 324.27 
3 *5:8 *5:10 4.5 
4 *5:10 *5:11 415.53 
5 *5:11 *5:14 48.87 
6 *5:14 *419:io_in[13] 19.08 
*END

*D_NET *6 0.0839074
*CONN
*P io_in[14] I
*I *419:io_in[14] I *D aes_core
*CAP
1 io_in[14] 0.00323126
2 *419:io_in[14] 0.000336637
3 *6:11 0.00664108
4 *6:10 0.0095357
5 *419:io_in[14] *8:18 0.0001187
6 *6:10 *61:11 0.0140558
7 *6:10 *73:11 0
8 *6:10 *80:12 0
9 *6:11 *42:8 0.00266948
10 *6:11 *73:10 0
11 *6:11 *285:62 0.0423906
12 *6:11 *358:16 0
13 *6:11 *367:16 0.00492818
*RES
1 io_in[14] *6:10 48.915 
2 *6:10 *6:11 120.87 
3 *6:11 *419:io_in[14] 6.885 
*END

*D_NET *7 0.111136
*CONN
*P io_in[15] I
*I *419:io_in[15] I *D aes_core
*CAP
1 io_in[15] 0.00159744
2 *419:io_in[15] 0.00323932
3 *7:11 0.00636038
4 *7:10 0.0047185
5 *419:io_in[15] *168:11 5.63154e-05
6 *419:io_in[15] *285:47 0.000810437
7 *7:10 *419:la_data_in[14] 0.000929422
8 *7:10 *9:14 0.00591555
9 *7:10 *85:22 0.00220543
10 *7:11 *13:11 0.0134012
11 *7:11 *26:16 0.050897
12 *7:11 *28:16 0.0169845
13 *7:11 *51:15 0.000558243
14 *7:11 *119:15 0.00343093
15 *7:11 *193:11 3.13604e-05
*RES
1 io_in[15] *7:10 32.175 
2 *7:10 *7:11 158.49 
3 *7:11 *419:io_in[15] 42.8048 
*END

*D_NET *8 0.226828
*CONN
*P io_in[16] I
*I *419:io_in[16] I *D aes_core
*CAP
1 io_in[16] 0.00349587
2 *419:io_in[16] 0.000837052
3 *8:41 0.00760464
4 *8:40 0.00768825
5 *8:28 0.00152127
6 *8:27 0.00132862
7 *8:20 0.0116361
8 *8:18 0.0144039
9 *8:20 *419:la_data_in[20] 0.00808016
10 *8:20 *419:wbs_adr_i[27] 0.00677957
11 *8:20 *43:28 0
12 *8:20 *127:16 0.00876943
13 *8:20 *316:22 0.000143142
14 *8:20 *335:22 0.00859627
15 *8:27 *179:15 0
16 *8:28 *43:27 0.00757037
17 *8:28 *305:16 0.0200186
18 *8:28 *342:16 0.00390529
19 *8:40 *419:la_oenb[33] 0.000590857
20 *8:40 *143:30 0.000811004
21 *8:40 *274:11 0.00262192
22 *8:40 *368:8 0.00166129
23 *8:41 *18:16 0.000276411
24 *8:41 *43:13 5.39939e-05
25 *8:41 *65:21 0.00276376
26 *8:41 *78:11 0.00284621
27 *8:41 *158:17 0.0310005
28 *8:41 *275:17 0.0274647
29 *419:io_in[14] *8:18 0.0001187
30 *1:15 *8:20 0.0107428
31 *2:11 *8:20 0.016773
32 *3:14 *8:41 0.0167248
*RES
1 io_in[16] *8:18 28.125 
2 *8:18 *8:20 243.09 
3 *8:20 *8:27 13.14 
4 *8:27 *8:28 49.95 
5 *8:28 *8:40 25.92 
6 *8:40 *8:41 214.11 
7 *8:41 *419:io_in[16] 18.9 
*END

*D_NET *9 0.347658
*CONN
*P io_in[17] I
*I *419:io_in[17] I *D aes_core
*CAP
1 io_in[17] 0.00126146
2 *419:io_in[17] 0.00340902
3 *9:15 0.00438552
4 *9:14 0.0032864
5 *9:8 0.0124796
6 *9:7 0.0114312
7 *419:io_in[17] *167:27 0.000765561
8 *419:io_in[17] *220:37 3.35917e-05
9 *9:8 *46:10 0.0141539
10 *9:8 *63:10 0
11 *9:8 *85:22 0.0777099
12 *9:8 *220:10 0
13 *9:14 *85:22 0.00355095
14 *9:14 *220:10 0
15 *9:15 *13:11 0.106742
16 *9:15 *35:8 0.000493094
17 *9:15 *61:11 5.85864e-05
18 *9:15 *70:11 8.01222e-06
19 *2:8 *9:15 0.101974
20 *7:10 *9:14 0.00591555
*RES
1 io_in[17] *9:7 12.285 
2 *9:7 *9:8 193.5 
3 *9:8 *9:14 38.79 
4 *9:14 *9:15 272.07 
5 *9:15 *419:io_in[17] 32.85 
*END

*D_NET *10 0.0650287
*CONN
*P io_in[18] I
*I *419:io_in[18] I *D aes_core
*CAP
1 io_in[18] 0.00147074
2 *419:io_in[18] 0.000186672
3 *10:18 0.000346516
4 *10:17 0.00274319
5 *10:10 0.00405408
6 *419:io_in[18] *187:18 0.000113944
7 *419:io_in[18] *187:23 0.000813006
8 *419:io_in[18] *201:8 2.31615e-05
9 *419:io_in[18] *201:9 0.00125812
10 *419:io_in[18] *327:12 2.28639e-05
11 *10:10 *47:14 0.0101445
12 *10:10 *317:12 0.00470421
13 *10:17 *156:27 0
14 *10:17 *274:29 6.1222e-05
15 *10:18 *187:9 0.0195135
16 *10:18 *201:9 6.85374e-06
17 *10:18 *327:12 0.0195661
*RES
1 io_in[18] *10:10 42.075 
2 *10:10 *10:17 28.08 
3 *10:17 *10:18 48.87 
4 *10:18 *419:io_in[18] 16.335 
*END

*D_NET *11 0.313971
*CONN
*P io_in[19] I
*I *419:io_in[19] I *D aes_core
*CAP
1 io_in[19] 0.000481279
2 *419:io_in[19] 0.00285491
3 *11:8 0.0063052
4 *11:7 0.00393156
5 *11:8 *13:8 0.00961185
6 *11:8 *21:19 0.166534
7 *11:8 *387:10 0.124252
*RES
1 io_in[19] *11:7 7.425 
2 *11:7 *11:8 414.45 
3 *11:8 *419:io_in[19] 22.635 
*END

*D_NET *12 0.619194
*CONN
*P io_in[1] I
*I *419:io_in[1] I *D aes_core
*CAP
1 io_in[1] 0.000374575
2 *419:io_in[1] 0.00164531
3 *12:16 0.0270326
4 *12:15 0.0253873
5 *12:13 0.0569543
6 *12:11 0.0573289
7 *12:13 *296:16 0
8 *12:16 *84:11 0.125583
9 *12:16 *111:11 0.0199509
10 *12:16 *172:11 0.304797
11 *1:12 *12:11 0.000140038
*RES
1 io_in[1] *12:11 3.195 
2 *12:11 *12:13 428.49 
3 *12:13 *12:15 4.5 
4 *12:15 *12:16 779.67 
5 *12:16 *419:io_in[1] 23.94 
*END

*D_NET *13 0.59195
*CONN
*P io_in[20] I
*I *419:io_in[20] I *D aes_core
*CAP
1 io_in[20] 0.000573176
2 *419:io_in[20] 0.00352476
3 *13:11 0.00985407
4 *13:10 0.00632931
5 *13:8 0.00651803
6 *13:7 0.00709121
7 *419:io_in[20] *40:14 0
8 *419:io_in[20] *208:11 0.000384245
9 *419:io_in[20] *214:12 2.44359e-05
10 *13:8 *21:19 0.00029426
11 *13:8 *22:19 0.134049
12 *13:8 *51:18 0.219337
13 *13:8 *387:10 0.0103466
14 *13:11 *28:16 0.0358576
15 *13:11 *31:16 0.0138046
16 *13:11 *35:8 0.00482759
17 *13:11 *51:15 0
18 *13:11 *123:11 0.00427062
19 *2:8 *13:11 0.00510887
20 *7:11 *13:11 0.0134012
21 *9:15 *13:11 0.106742
22 *11:8 *13:8 0.00961185
*RES
1 io_in[20] *13:7 8.145 
2 *13:7 *13:8 546.75 
3 *13:8 *13:10 4.5 
4 *13:10 *13:11 357.03 
5 *13:11 *419:io_in[20] 42.03 
*END

*D_NET *14 0.122394
*CONN
*P io_in[21] I
*I *419:io_in[21] I *D aes_core
*CAP
1 io_in[21] 0.0014568
2 *419:io_in[21] 0.000274494
3 *14:14 0.0314122
4 *14:13 0.0311377
5 *14:11 0.0280092
6 *14:10 0.029466
7 *419:io_in[21] *156:11 0.00025906
8 *14:10 *378:8 0.000378268
9 *14:11 *400:11 0
*RES
1 io_in[21] *14:10 19.935 
2 *14:10 *14:11 211.41 
3 *14:11 *14:13 4.5 
4 *14:13 *14:14 234.81 
5 *14:14 *419:io_in[21] 11.88 
*END

*D_NET *15 0.221413
*CONN
*P io_in[22] I
*I *419:io_in[22] I *D aes_core
*CAP
1 io_in[22] 0.00156329
2 *419:io_in[22] 0.00176437
3 *15:8 0.0259809
4 *15:7 0.0257798
5 *419:io_in[22] *274:29 5.31559e-05
6 *15:8 io_out[20] 0
7 *15:8 *27:19 0.00548317
8 *15:8 *105:10 0.0986582
9 *15:8 *116:16 0
10 *15:8 *129:14 0.0399968
11 *15:8 *395:10 0.022133
*RES
1 io_in[22] *15:7 15.525 
2 *15:7 *15:8 428.67 
3 *15:8 *419:io_in[22] 14.895 
*END

*D_NET *16 0.13539
*CONN
*P io_in[23] I
*I *419:io_in[23] I *D aes_core
*CAP
1 io_in[23] 0.00449426
2 *419:io_in[23] 0.000136301
3 *16:14 0.0555121
4 *16:13 0.0553758
5 *16:11 0.00765791
6 *16:10 0.0121522
7 *419:io_in[23] *156:11 6.15482e-05
8 *16:11 *378:5 0
*RES
1 io_in[23] *16:10 43.155 
2 *16:10 *16:11 58.05 
3 *16:11 *16:13 4.5 
4 *16:13 *16:14 423.81 
5 *16:14 *419:io_in[23] 10.26 
*END

*D_NET *17 0.55869
*CONN
*P io_in[24] I
*I *419:io_in[24] I *D aes_core
*CAP
1 io_in[24] 0.000201168
2 *419:io_in[24] 0.000913816
3 *17:19 0.0693093
4 *17:18 0.0683954
5 *17:16 0.0540066
6 *17:15 0.0540066
7 *17:13 0.00830218
8 *17:11 0.00850335
9 *17:19 *419:la_data_in[32] 0.000367281
10 *17:19 *419:la_oenb[61] 0.00130864
11 *17:19 *97:12 0
12 *17:19 *114:13 0.000897003
13 *17:19 *213:10 0.00100635
14 *17:19 *377:16 0.291472
*RES
1 io_in[24] *17:11 1.935 
2 *17:11 *17:13 52.11 
3 *17:13 *17:15 4.5 
4 *17:15 *17:16 414.81 
5 *17:16 *17:18 4.5 
6 *17:18 *17:19 829.71 
7 *17:19 *419:io_in[24] 10.125 
*END

*D_NET *18 0.626684
*CONN
*P io_in[25] I
*I *419:io_in[25] I *D aes_core
*CAP
1 io_in[25] 0.000125876
2 *419:io_in[25] 0.00288101
3 *18:22 0.00304518
4 *18:21 0.000164167
5 *18:19 0.0334356
6 *18:18 0.0334356
7 *18:16 0.00526339
8 *18:15 0.00526339
9 *18:13 0.0832523
10 *18:11 0.0833782
11 *419:io_in[25] *137:29 0.00056585
12 *419:io_in[25] *167:23 0.000560337
13 *18:13 *419:la_data_in[25] 0.00873555
14 *18:16 *65:21 0.137181
15 *18:16 *158:17 0.0597729
16 *18:16 *221:11 0.0139293
17 *18:16 *275:17 0.00311742
18 *18:19 *180:16 0
19 *18:19 *198:22 0
20 *18:19 *211:18 0.00955905
21 *18:19 *222:14 0.0261311
22 *18:19 *278:16 0.0345631
23 *18:22 *73:11 0.0360522
24 *18:22 *160:19 0.0360522
25 *18:22 *336:19 0.00375594
26 *5:14 *18:16 0.00618699
27 *8:41 *18:16 0.000276411
*RES
1 io_in[25] *18:11 1.395 
2 *18:11 *18:13 532.89 
3 *18:13 *18:15 4.5 
4 *18:15 *18:16 351.27 
5 *18:16 *18:18 4.5 
6 *18:18 *18:19 418.23 
7 *18:19 *18:21 4.5 
8 *18:21 *18:22 92.07 
9 *18:22 *419:io_in[25] 38.8604 
*END

*D_NET *19 0.477642
*CONN
*P io_in[26] I
*I *419:io_in[26] I *D aes_core
*CAP
1 io_in[26] 0.00395065
2 *419:io_in[26] 0.00234327
3 *19:11 0.0793187
4 *19:10 0.0769754
5 *19:8 0.0372854
6 *19:7 0.041236
7 *419:io_in[26] *204:18 0.000450805
8 *19:11 *94:10 0.213486
9 *19:11 *103:16 0
10 *19:11 *114:14 0.022596
11 *19:11 *349:16 0
*RES
1 io_in[26] *19:7 34.965 
2 *19:7 *19:8 286.65 
3 *19:8 *19:10 4.5 
4 *19:10 *19:11 895.23 
5 *19:11 *419:io_in[26] 19.395 
*END

*D_NET *20 0.193247
*CONN
*P io_in[27] I
*I *419:io_in[27] I *D aes_core
*CAP
1 io_in[27] 0.00275663
2 *419:io_in[27] 0.000205875
3 *20:11 0.0692091
4 *20:10 0.0690032
5 *20:8 0.0245529
6 *20:7 0.0273096
7 *419:io_in[27] *156:11 0.000209264
8 *20:8 *314:13 0
*RES
1 io_in[27] *20:7 21.465 
2 *20:7 *20:8 188.73 
3 *20:8 *20:10 4.5 
4 *20:10 *20:11 521.01 
5 *20:11 *419:io_in[27] 11.34 
*END

*D_NET *21 0.565168
*CONN
*P io_in[28] I
*I *419:io_in[28] I *D aes_core
*CAP
1 io_in[28] 0.000249598
2 *419:io_in[28] 0.00292386
3 *21:19 0.00862546
4 *21:18 0.0057016
5 *21:16 0.0380229
6 *21:15 0.0380229
7 *21:13 0.0546275
8 *21:11 0.0548771
9 *419:io_in[28] *231:5 0.000229357
10 *21:16 *305:13 0
11 *21:19 *30:15 0.00143838
12 *21:19 *126:14 0.176137
13 *21:19 *387:10 0.0174844
14 *11:8 *21:19 0.166534
15 *13:8 *21:19 0.00029426
*RES
1 io_in[28] *21:11 2.475 
2 *21:11 *21:13 419.31 
3 *21:13 *21:15 4.5 
4 *21:15 *21:16 285.03 
5 *21:16 *21:18 4.5 
6 *21:18 *21:19 513.09 
7 *21:19 *419:io_in[28] 23.175 
*END

*D_NET *22 0.574643
*CONN
*P io_in[29] I
*I *419:io_in[29] I *D aes_core
*CAP
1 io_in[29] 0.00312523
2 *419:io_in[29] 0.00275284
3 *22:19 0.0107957
4 *22:18 0.0080429
5 *22:16 0.0457919
6 *22:15 0.0489171
7 *22:19 *51:18 0.013131
8 *22:19 *60:10 0.0389122
9 *22:19 *348:12 0.254232
10 *22:19 *387:10 0.0148934
11 *13:8 *22:19 0.134049
*RES
1 io_in[29] *22:15 28.845 
2 *22:15 *22:16 351.81 
3 *22:16 *22:18 4.5 
4 *22:18 *22:19 719.73 
5 *22:19 *419:io_in[29] 21.555 
*END

*D_NET *23 0.338289
*CONN
*P io_in[2] I
*I *419:io_in[2] I *D aes_core
*CAP
1 io_in[2] 0.000244681
2 *419:io_in[2] 0.000367794
3 *23:16 0.029598
4 *23:15 0.0292302
5 *23:13 0.0558607
6 *23:11 0.0561054
7 *23:16 *32:8 0.145149
8 *23:16 *86:11 0.000364981
9 *23:16 *97:15 3.08549e-05
10 *23:16 *195:11 4.18758e-05
11 *23:16 *200:13 0.0042134
12 *23:16 *257:11 0.0170812
*RES
1 io_in[2] *23:11 2.115 
2 *23:11 *23:13 420.39 
3 *23:13 *23:15 4.5 
4 *23:15 *23:16 437.31 
5 *23:16 *419:io_in[2] 15.84 
*END

*D_NET *24 0.162241
*CONN
*P io_in[30] I
*I *419:io_in[30] I *D aes_core
*CAP
1 io_in[30] 0.000113196
2 *419:io_in[30] 0.000136301
3 *24:19 0.0608406
4 *24:18 0.0607043
5 *24:16 0.00982916
6 *24:15 0.00982916
7 *24:13 0.0103066
8 *24:11 0.0104198
9 *419:io_in[30] *156:11 6.15482e-05
*RES
1 io_in[30] *24:11 1.395 
2 *24:11 *24:13 79.11 
3 *24:13 *24:15 4.5 
4 *24:15 *24:16 75.69 
5 *24:16 *24:18 4.5 
6 *24:18 *24:19 458.91 
7 *24:19 *419:io_in[30] 10.26 
*END

*D_NET *25 0.552509
*CONN
*P io_in[31] I
*I *419:io_in[31] I *D aes_core
*CAP
1 io_in[31] 0.00179421
2 *419:io_in[31] 0.00151611
3 *25:15 0.0073728
4 *25:14 0.00585669
5 *25:12 0.0629872
6 *25:11 0.0629872
7 *25:9 0.0271568
8 *25:7 0.0289511
9 *25:9 *341:12 0
10 *25:9 *390:12 0
11 *25:12 *326:13 0
12 *25:12 *390:15 0
13 *25:15 *27:19 0.143981
14 *25:15 *82:16 0.0277189
15 *25:15 *362:14 0.182188
16 *25:15 *411:8 0
*RES
1 io_in[31] *25:7 13.185 
2 *25:7 *25:9 206.64 
3 *25:9 *25:11 4.5 
4 *25:11 *25:12 478.35 
5 *25:12 *25:14 4.5 
6 *25:14 *25:15 509.85 
7 *25:15 *419:io_in[31] 13.995 
*END

*D_NET *26 0.613909
*CONN
*P io_in[32] I
*I *419:io_in[32] I *D aes_core
*CAP
1 io_in[32] 0.000323383
2 *419:io_in[32] 0.00288518
3 *26:16 0.00836814
4 *26:15 0.00548296
5 *26:13 0.127189
6 *26:11 0.127513
7 *419:io_in[32] *220:19 0.000382635
8 *26:16 *28:16 0.0297298
9 *26:16 *41:11 0.0887391
10 *26:16 *72:15 0.00877929
11 *26:16 *119:15 0.16361
12 *26:16 *181:15 9.86406e-06
13 *7:11 *26:16 0.050897
*RES
1 io_in[32] *26:11 3.015 
2 *26:11 *26:13 954.99 
3 *26:13 *26:15 4.5 
4 *26:15 *26:16 523.89 
5 *26:16 *419:io_in[32] 32.67 
*END

*D_NET *27 0.45122
*CONN
*P io_in[33] I
*I *419:io_in[33] I *D aes_core
*CAP
1 io_in[33] 0.000242542
2 *419:io_in[33] 0.00168179
3 *27:19 0.0140997
4 *27:18 0.0124179
5 *27:16 0.0807088
6 *27:15 0.0807088
7 *27:13 0.0189688
8 *27:11 0.0192113
9 *27:16 *382:21 0
10 *27:19 *82:16 0.0261078
11 *27:19 *395:10 0.0476089
12 *27:19 *411:8 0
13 *15:8 *27:19 0.00548317
14 *25:15 *27:19 0.143981
*RES
1 io_in[33] *27:11 2.475 
2 *27:11 *27:13 143.91 
3 *27:13 *27:15 4.5 
4 *27:15 *27:16 616.23 
5 *27:16 *27:18 4.5 
6 *27:18 *27:19 436.41 
7 *27:19 *419:io_in[33] 14.175 
*END

*D_NET *28 0.603062
*CONN
*P io_in[34] I
*I *419:io_in[34] I *D aes_core
*CAP
1 io_in[34] 0.000177869
2 *419:io_in[34] 0.00301435
3 *28:16 0.0155202
4 *28:15 0.0125058
5 *28:13 0.126953
6 *28:11 0.127131
7 *419:io_in[34] *137:29 0.000148427