*SPEF "ieee 1481-1999"
*DESIGN "user_project_wrapper"
*DATE "11:11:11 Fri 11 11, 1111"
*VENDOR "OpenRCX"
*PROGRAM "Parallel Extraction"
*VERSION "1.0"
*DESIGN_FLOW "NAME_SCOPE LOCAL" "PIN_CAP NONE"
*DIVIDER /
*DELIMITER :
*BUS_DELIMITER []
*T_UNIT 1 NS
*C_UNIT 1 PF
*R_UNIT 1 OHM
*L_UNIT 1 HENRY

*NAME_MAP
*1 io_in[0]
*2 io_in[10]
*3 io_in[11]
*4 io_in[12]
*5 io_in[13]
*6 io_in[14]
*7 io_in[15]
*8 io_in[16]
*9 io_in[17]
*10 io_in[18]
*11 io_in[19]
*12 io_in[1]
*13 io_in[20]
*14 io_in[21]
*15 io_in[22]
*16 io_in[23]
*17 io_in[24]
*18 io_in[25]
*19 io_in[26]
*20 io_in[27]
*21 io_in[28]
*22 io_in[29]
*23 io_in[2]
*24 io_in[30]
*25 io_in[31]
*26 io_in[32]
*27 io_in[33]
*28 io_in[34]
*29 io_in[35]
*30 io_in[36]
*31 io_in[37]
*32 io_in[3]
*33 io_in[4]
*34 io_in[5]
*35 io_in[6]
*36 io_in[7]
*37 io_in[8]
*38 io_in[9]
*39 io_oeb[0]
*40 io_oeb[10]
*41 io_oeb[11]
*42 io_oeb[12]
*43 io_oeb[13]
*44 io_oeb[14]
*45 io_oeb[15]
*46 io_oeb[16]
*47 io_oeb[17]
*48 io_oeb[18]
*49 io_oeb[19]
*50 io_oeb[1]
*51 io_oeb[20]
*52 io_oeb[21]
*53 io_oeb[22]
*54 io_oeb[23]
*55 io_oeb[24]
*56 io_oeb[25]
*57 io_oeb[26]
*58 io_oeb[27]
*59 io_oeb[28]
*60 io_oeb[29]
*61 io_oeb[2]
*62 io_oeb[30]
*63 io_oeb[31]
*64 io_oeb[32]
*65 io_oeb[33]
*66 io_oeb[34]
*67 io_oeb[35]
*68 io_oeb[36]
*69 io_oeb[37]
*70 io_oeb[3]
*71 io_oeb[4]
*72 io_oeb[5]
*73 io_oeb[6]
*74 io_oeb[7]
*75 io_oeb[8]
*76 io_oeb[9]
*77 io_out[0]
*78 io_out[10]
*79 io_out[11]
*80 io_out[12]
*81 io_out[13]
*82 io_out[14]
*83 io_out[15]
*84 io_out[16]
*85 io_out[17]
*86 io_out[18]
*87 io_out[19]
*88 io_out[1]
*89 io_out[20]
*90 io_out[21]
*91 io_out[22]
*92 io_out[23]
*93 io_out[24]
*94 io_out[25]
*95 io_out[26]
*96 io_out[27]
*97 io_out[28]
*98 io_out[29]
*99 io_out[2]
*100 io_out[30]
*101 io_out[31]
*102 io_out[32]
*103 io_out[33]
*104 io_out[34]
*105 io_out[35]
*106 io_out[36]
*107 io_out[37]
*108 io_out[3]
*109 io_out[4]
*110 io_out[5]
*111 io_out[6]
*112 io_out[7]
*113 io_out[8]
*114 io_out[9]
*115 la_data_in[0]
*116 la_data_in[10]
*117 la_data_in[11]
*118 la_data_in[12]
*119 la_data_in[13]
*120 la_data_in[14]
*121 la_data_in[15]
*122 la_data_in[16]
*123 la_data_in[17]
*124 la_data_in[18]
*125 la_data_in[19]
*126 la_data_in[1]
*127 la_data_in[20]
*128 la_data_in[21]
*129 la_data_in[22]
*130 la_data_in[23]
*131 la_data_in[24]
*132 la_data_in[25]
*133 la_data_in[26]
*134 la_data_in[27]
*135 la_data_in[28]
*136 la_data_in[29]
*137 la_data_in[2]
*138 la_data_in[30]
*139 la_data_in[31]
*140 la_data_in[32]
*141 la_data_in[33]
*142 la_data_in[34]
*143 la_data_in[35]
*144 la_data_in[36]
*145 la_data_in[37]
*146 la_data_in[38]
*147 la_data_in[39]
*148 la_data_in[3]
*149 la_data_in[40]
*150 la_data_in[41]
*151 la_data_in[42]
*152 la_data_in[43]
*153 la_data_in[44]
*154 la_data_in[45]
*155 la_data_in[46]
*156 la_data_in[47]
*157 la_data_in[48]
*158 la_data_in[49]
*159 la_data_in[4]
*160 la_data_in[50]
*161 la_data_in[51]
*162 la_data_in[52]
*163 la_data_in[53]
*164 la_data_in[54]
*165 la_data_in[55]
*166 la_data_in[56]
*167 la_data_in[57]
*168 la_data_in[58]
*169 la_data_in[59]
*170 la_data_in[5]
*171 la_data_in[60]
*172 la_data_in[61]
*173 la_data_in[62]
*174 la_data_in[63]
*175 la_data_in[6]
*176 la_data_in[7]
*177 la_data_in[8]
*178 la_data_in[9]
*179 la_data_out[0]
*180 la_data_out[10]
*181 la_data_out[11]
*182 la_data_out[12]
*183 la_data_out[13]
*184 la_data_out[14]
*185 la_data_out[15]
*186 la_data_out[16]
*187 la_data_out[17]
*188 la_data_out[18]
*189 la_data_out[19]
*190 la_data_out[1]
*191 la_data_out[20]
*192 la_data_out[21]
*193 la_data_out[22]
*194 la_data_out[23]
*195 la_data_out[24]
*196 la_data_out[25]
*197 la_data_out[26]
*198 la_data_out[27]
*199 la_data_out[28]
*200 la_data_out[29]
*201 la_data_out[2]
*202 la_data_out[30]
*203 la_data_out[31]
*204 la_data_out[32]
*205 la_data_out[33]
*206 la_data_out[34]
*207 la_data_out[35]
*208 la_data_out[36]
*209 la_data_out[37]
*210 la_data_out[38]
*211 la_data_out[39]
*212 la_data_out[3]
*213 la_data_out[40]
*214 la_data_out[41]
*215 la_data_out[42]
*216 la_data_out[43]
*217 la_data_out[44]
*218 la_data_out[45]
*219 la_data_out[46]
*220 la_data_out[47]
*221 la_data_out[48]
*222 la_data_out[49]
*223 la_data_out[4]
*224 la_data_out[50]
*225 la_data_out[51]
*226 la_data_out[52]
*227 la_data_out[53]
*228 la_data_out[54]
*229 la_data_out[55]
*230 la_data_out[56]
*231 la_data_out[57]
*232 la_data_out[58]
*233 la_data_out[59]
*234 la_data_out[5]
*235 la_data_out[60]
*236 la_data_out[61]
*237 la_data_out[62]
*238 la_data_out[63]
*239 la_data_out[6]
*240 la_data_out[7]
*241 la_data_out[8]
*242 la_data_out[9]
*243 la_oenb[0]
*244 la_oenb[10]
*245 la_oenb[11]
*246 la_oenb[12]
*247 la_oenb[13]
*248 la_oenb[14]
*249 la_oenb[15]
*250 la_oenb[16]
*251 la_oenb[17]
*252 la_oenb[18]
*253 la_oenb[19]
*254 la_oenb[1]
*255 la_oenb[20]
*256 la_oenb[21]
*257 la_oenb[22]
*258 la_oenb[23]
*259 la_oenb[24]
*260 la_oenb[25]
*261 la_oenb[26]
*262 la_oenb[27]
*263 la_oenb[28]
*264 la_oenb[29]
*265 la_oenb[2]
*266 la_oenb[30]
*267 la_oenb[31]
*268 la_oenb[32]
*269 la_oenb[33]
*270 la_oenb[34]
*271 la_oenb[35]
*272 la_oenb[36]
*273 la_oenb[37]
*274 la_oenb[38]
*275 la_oenb[39]
*276 la_oenb[3]
*277 la_oenb[40]
*278 la_oenb[41]
*279 la_oenb[42]
*280 la_oenb[43]
*281 la_oenb[44]
*282 la_oenb[45]
*283 la_oenb[46]
*284 la_oenb[47]
*285 la_oenb[48]
*286 la_oenb[49]
*287 la_oenb[4]
*288 la_oenb[50]
*289 la_oenb[51]
*290 la_oenb[52]
*291 la_oenb[53]
*292 la_oenb[54]
*293 la_oenb[55]
*294 la_oenb[56]
*295 la_oenb[57]
*296 la_oenb[58]
*297 la_oenb[59]
*298 la_oenb[5]
*299 la_oenb[60]
*300 la_oenb[61]
*301 la_oenb[62]
*302 la_oenb[63]
*303 la_oenb[6]
*304 la_oenb[7]
*305 la_oenb[8]
*306 la_oenb[9]
*307 user_clock2
*308 user_irq[0]
*309 user_irq[1]
*310 user_irq[2]
*313 wb_clk_i
*314 wb_rst_i
*315 wbs_ack_o
*316 wbs_adr_i[0]
*317 wbs_adr_i[10]
*318 wbs_adr_i[11]
*319 wbs_adr_i[12]
*320 wbs_adr_i[13]
*321 wbs_adr_i[14]
*322 wbs_adr_i[15]
*323 wbs_adr_i[16]
*324 wbs_adr_i[17]
*325 wbs_adr_i[18]
*326 wbs_adr_i[19]
*327 wbs_adr_i[1]
*328 wbs_adr_i[20]
*329 wbs_adr_i[21]
*330 wbs_adr_i[22]
*331 wbs_adr_i[23]
*332 wbs_adr_i[24]
*333 wbs_adr_i[25]
*334 wbs_adr_i[26]
*335 wbs_adr_i[27]
*336 wbs_adr_i[28]
*337 wbs_adr_i[29]
*338 wbs_adr_i[2]
*339 wbs_adr_i[30]
*340 wbs_adr_i[31]
*341 wbs_adr_i[3]
*342 wbs_adr_i[4]
*343 wbs_adr_i[5]
*344 wbs_adr_i[6]
*345 wbs_adr_i[7]
*346 wbs_adr_i[8]
*347 wbs_adr_i[9]
*348 wbs_cyc_i
*349 wbs_dat_i[0]
*350 wbs_dat_i[10]
*351 wbs_dat_i[11]
*352 wbs_dat_i[12]
*353 wbs_dat_i[13]
*354 wbs_dat_i[14]
*355 wbs_dat_i[15]
*356 wbs_dat_i[16]
*357 wbs_dat_i[17]
*358 wbs_dat_i[18]
*359 wbs_dat_i[19]
*360 wbs_dat_i[1]
*361 wbs_dat_i[20]
*362 wbs_dat_i[21]
*363 wbs_dat_i[22]
*364 wbs_dat_i[23]
*365 wbs_dat_i[24]
*366 wbs_dat_i[25]
*367 wbs_dat_i[26]
*368 wbs_dat_i[27]
*369 wbs_dat_i[28]
*370 wbs_dat_i[29]
*371 wbs_dat_i[2]
*372 wbs_dat_i[30]
*373 wbs_dat_i[31]
*374 wbs_dat_i[3]
*375 wbs_dat_i[4]
*376 wbs_dat_i[5]
*377 wbs_dat_i[6]
*378 wbs_dat_i[7]
*379 wbs_dat_i[8]
*380 wbs_dat_i[9]
*381 wbs_dat_o[0]
*382 wbs_dat_o[10]
*383 wbs_dat_o[11]
*384 wbs_dat_o[12]
*385 wbs_dat_o[13]
*386 wbs_dat_o[14]
*387 wbs_dat_o[15]
*388 wbs_dat_o[16]
*389 wbs_dat_o[17]
*390 wbs_dat_o[18]
*391 wbs_dat_o[19]
*392 wbs_dat_o[1]
*393 wbs_dat_o[20]
*394 wbs_dat_o[21]
*395 wbs_dat_o[22]
*396 wbs_dat_o[23]
*397 wbs_dat_o[24]
*398 wbs_dat_o[25]
*399 wbs_dat_o[26]
*400 wbs_dat_o[27]
*401 wbs_dat_o[28]
*402 wbs_dat_o[29]
*403 wbs_dat_o[2]
*404 wbs_dat_o[30]
*405 wbs_dat_o[31]
*406 wbs_dat_o[3]
*407 wbs_dat_o[4]
*408 wbs_dat_o[5]
*409 wbs_dat_o[6]
*410 wbs_dat_o[7]
*411 wbs_dat_o[8]
*412 wbs_dat_o[9]
*413 wbs_sel_i[0]
*414 wbs_sel_i[1]
*415 wbs_sel_i[2]
*416 wbs_sel_i[3]
*417 wbs_stb_i
*418 wbs_we_i
*419 mprj

*PORTS
io_in[0] I
io_in[10] I
io_in[11] I
io_in[12] I
io_in[13] I
io_in[14] I
io_in[15] I
io_in[16] I
io_in[17] I
io_in[18] I
io_in[19] I
io_in[1] I
io_in[20] I
io_in[21] I
io_in[22] I
io_in[23] I
io_in[24] I
io_in[25] I
io_in[26] I
io_in[27] I
io_in[28] I
io_in[29] I
io_in[2] I
io_in[30] I
io_in[31] I
io_in[32] I
io_in[33] I
io_in[34] I
io_in[35] I
io_in[36] I
io_in[37] I
io_in[3] I
io_in[4] I
io_in[5] I
io_in[6] I
io_in[7] I
io_in[8] I
io_in[9] I
io_oeb[0] O
io_oeb[10] O
io_oeb[11] O
io_oeb[12] O
io_oeb[13] O
io_oeb[14] O
io_oeb[15] O
io_oeb[16] O
io_oeb[17] O
io_oeb[18] O
io_oeb[19] O
io_oeb[1] O
io_oeb[20] O
io_oeb[21] O
io_oeb[22] O
io_oeb[23] O
io_oeb[24] O
io_oeb[25] O
io_oeb[26] O
io_oeb[27] O
io_oeb[28] O
io_oeb[29] O
io_oeb[2] O
io_oeb[30] O
io_oeb[31] O
io_oeb[32] O
io_oeb[33] O
io_oeb[34] O
io_oeb[35] O
io_oeb[36] O
io_oeb[37] O
io_oeb[3] O
io_oeb[4] O
io_oeb[5] O
io_oeb[6] O
io_oeb[7] O
io_oeb[8] O
io_oeb[9] O
io_out[0] O
io_out[10] O
io_out[11] O
io_out[12] O
io_out[13] O
io_out[14] O
io_out[15] O
io_out[16] O
io_out[17] O
io_out[18] O
io_out[19] O
io_out[1] O
io_out[20] O
io_out[21] O
io_out[22] O
io_out[23] O
io_out[24] O
io_out[25] O
io_out[26] O
io_out[27] O
io_out[28] O
io_out[29] O
io_out[2] O
io_out[30] O
io_out[31] O
io_out[32] O
io_out[33] O
io_out[34] O
io_out[35] O
io_out[36] O
io_out[37] O
io_out[3] O
io_out[4] O
io_out[5] O
io_out[6] O
io_out[7] O
io_out[8] O
io_out[9] O
la_data_in[0] I
la_data_in[10] I
la_data_in[11] I
la_data_in[12] I
la_data_in[13] I
la_data_in[14] I
la_data_in[15] I
la_data_in[16] I
la_data_in[17] I
la_data_in[18] I
la_data_in[19] I
la_data_in[1] I
la_data_in[20] I
la_data_in[21] I
la_data_in[22] I
la_data_in[23] I
la_data_in[24] I
la_data_in[25] I
la_data_in[26] I
la_data_in[27] I
la_data_in[28] I
la_data_in[29] I
la_data_in[2] I
la_data_in[30] I
la_data_in[31] I
la_data_in[32] I
la_data_in[33] I
la_data_in[34] I
la_data_in[35] I
la_data_in[36] I
la_data_in[37] I
la_data_in[38] I
la_data_in[39] I
la_data_in[3] I
la_data_in[40] I
la_data_in[41] I
la_data_in[42] I
la_data_in[43] I
la_data_in[44] I
la_data_in[45] I
la_data_in[46] I
la_data_in[47] I
la_data_in[48] I
la_data_in[49] I
la_data_in[4] I
la_data_in[50] I
la_data_in[51] I
la_data_in[52] I
la_data_in[53] I
la_data_in[54] I
la_data_in[55] I
la_data_in[56] I
la_data_in[57] I
la_data_in[58] I
la_data_in[59] I
la_data_in[5] I
la_data_in[60] I
la_data_in[61] I
la_data_in[62] I
la_data_in[63] I
la_data_in[6] I
la_data_in[7] I
la_data_in[8] I
la_data_in[9] I
la_data_out[0] O
la_data_out[10] O
la_data_out[11] O
la_data_out[12] O
la_data_out[13] O
la_data_out[14] O
la_data_out[15] O
la_data_out[16] O
la_data_out[17] O
la_data_out[18] O
la_data_out[19] O
la_data_out[1] O
la_data_out[20] O
la_data_out[21] O
la_data_out[22] O
la_data_out[23] O
la_data_out[24] O
la_data_out[25] O
la_data_out[26] O
la_data_out[27] O
la_data_out[28] O
la_data_out[29] O
la_data_out[2] O
la_data_out[30] O
la_data_out[31] O
la_data_out[32] O
la_data_out[33] O
la_data_out[34] O
la_data_out[35] O
la_data_out[36] O
la_data_out[37] O
la_data_out[38] O
la_data_out[39] O
la_data_out[3] O
la_data_out[40] O
la_data_out[41] O
la_data_out[42] O
la_data_out[43] O
la_data_out[44] O
la_data_out[45] O
la_data_out[46] O
la_data_out[47] O
la_data_out[48] O
la_data_out[49] O
la_data_out[4] O
la_data_out[50] O
la_data_out[51] O
la_data_out[52] O
la_data_out[53] O
la_data_out[54] O
la_data_out[55] O
la_data_out[56] O
la_data_out[57] O
la_data_out[58] O
la_data_out[59] O
la_data_out[5] O
la_data_out[60] O
la_data_out[61] O
la_data_out[62] O
la_data_out[63] O
la_data_out[6] O
la_data_out[7] O
la_data_out[8] O
la_data_out[9] O
la_oenb[0] I
la_oenb[10] I
la_oenb[11] I
la_oenb[12] I
la_oenb[13] I
la_oenb[14] I
la_oenb[15] I
la_oenb[16] I
la_oenb[17] I
la_oenb[18] I
la_oenb[19] I
la_oenb[1] I
la_oenb[20] I
la_oenb[21] I
la_oenb[22] I
la_oenb[23] I
la_oenb[24] I
la_oenb[25] I
la_oenb[26] I
la_oenb[27] I
la_oenb[28] I
la_oenb[29] I
la_oenb[2] I
la_oenb[30] I
la_oenb[31] I
la_oenb[32] I
la_oenb[33] I
la_oenb[34] I
la_oenb[35] I
la_oenb[36] I
la_oenb[37] I
la_oenb[38] I
la_oenb[39] I
la_oenb[3] I
la_oenb[40] I
la_oenb[41] I
la_oenb[42] I
la_oenb[43] I
la_oenb[44] I
la_oenb[45] I
la_oenb[46] I
la_oenb[47] I
la_oenb[48] I
la_oenb[49] I
la_oenb[4] I
la_oenb[50] I
la_oenb[51] I
la_oenb[52] I
la_oenb[53] I
la_oenb[54] I
la_oenb[55] I
la_oenb[56] I
la_oenb[57] I
la_oenb[58] I
la_oenb[59] I
la_oenb[5] I
la_oenb[60] I
la_oenb[61] I
la_oenb[62] I
la_oenb[63] I
la_oenb[6] I
la_oenb[7] I
la_oenb[8] I
la_oenb[9] I
user_clock2 I
user_irq[0] O
user_irq[1] O
user_irq[2] O
wb_clk_i I
wb_rst_i I
wbs_ack_o O
wbs_adr_i[0] I
wbs_adr_i[10] I
wbs_adr_i[11] I
wbs_adr_i[12] I
wbs_adr_i[13] I
wbs_adr_i[14] I
wbs_adr_i[15] I
wbs_adr_i[16] I
wbs_adr_i[17] I
wbs_adr_i[18] I
wbs_adr_i[19] I
wbs_adr_i[1] I
wbs_adr_i[20] I
wbs_adr_i[21] I
wbs_adr_i[22] I
wbs_adr_i[23] I
wbs_adr_i[24] I
wbs_adr_i[25] I
wbs_adr_i[26] I
wbs_adr_i[27] I
wbs_adr_i[28] I
wbs_adr_i[29] I
wbs_adr_i[2] I
wbs_adr_i[30] I
wbs_adr_i[31] I
wbs_adr_i[3] I
wbs_adr_i[4] I
wbs_adr_i[5] I
wbs_adr_i[6] I
wbs_adr_i[7] I
wbs_adr_i[8] I
wbs_adr_i[9] I
wbs_cyc_i I
wbs_dat_i[0] I
wbs_dat_i[10] I
wbs_dat_i[11] I
wbs_dat_i[12] I
wbs_dat_i[13] I
wbs_dat_i[14] I
wbs_dat_i[15] I
wbs_dat_i[16] I
wbs_dat_i[17] I
wbs_dat_i[18] I
wbs_dat_i[19] I
wbs_dat_i[1] I
wbs_dat_i[20] I
wbs_dat_i[21] I
wbs_dat_i[22] I
wbs_dat_i[23] I
wbs_dat_i[24] I
wbs_dat_i[25] I
wbs_dat_i[26] I
wbs_dat_i[27] I
wbs_dat_i[28] I
wbs_dat_i[29] I
wbs_dat_i[2] I
wbs_dat_i[30] I
wbs_dat_i[31] I
wbs_dat_i[3] I
wbs_dat_i[4] I
wbs_dat_i[5] I
wbs_dat_i[6] I
wbs_dat_i[7] I
wbs_dat_i[8] I
wbs_dat_i[9] I
wbs_dat_o[0] O
wbs_dat_o[10] O
wbs_dat_o[11] O
wbs_dat_o[12] O
wbs_dat_o[13] O
wbs_dat_o[14] O
wbs_dat_o[15] O
wbs_dat_o[16] O
wbs_dat_o[17] O
wbs_dat_o[18] O
wbs_dat_o[19] O
wbs_dat_o[1] O
wbs_dat_o[20] O
wbs_dat_o[21] O
wbs_dat_o[22] O
wbs_dat_o[23] O
wbs_dat_o[24] O
wbs_dat_o[25] O
wbs_dat_o[26] O
wbs_dat_o[27] O
wbs_dat_o[28] O
wbs_dat_o[29] O
wbs_dat_o[2] O
wbs_dat_o[30] O
wbs_dat_o[31] O
wbs_dat_o[3] O
wbs_dat_o[4] O
wbs_dat_o[5] O
wbs_dat_o[6] O
wbs_dat_o[7] O
wbs_dat_o[8] O
wbs_dat_o[9] O
wbs_sel_i[0] I
wbs_sel_i[1] I
wbs_sel_i[2] I
wbs_sel_i[3] I
wbs_stb_i I
wbs_we_i I

*D_NET *1 0.846949
*CONN
*P io_in[0] I
*I *419:io_in[0] I *D aes_core
*CAP
1 io_in[0] 0.000263778
2 *419:io_in[0] 0.000924039
3 *1:11 0.00362082
4 *1:10 0.00269679
5 *1:8 0.0530548
6 *1:7 0.0533186
7 *1:7 *180:13 1.55424e-05
8 *1:8 *13:11 0.000165714
9 *1:8 *35:8 0
10 *1:8 *42:12 0
11 *1:8 *61:12 0.515495
12 *1:8 *69:10 0
13 *1:8 *73:11 0.00110476
14 *1:8 *180:10 0.0387077
15 *1:11 *9:8 2.48679e-05
16 *1:11 *26:19 0.108859
17 *1:11 *43:14 0.0242461
18 *1:11 *231:8 0.0444513
*RES
1 io_in[0] *1:7 6.885 
2 *1:7 *1:8 936.99 
3 *1:8 *1:10 4.5 
4 *1:10 *1:11 173.07 
5 *1:11 *419:io_in[0] 12.645 
*END

*D_NET *2 0.590123
*CONN
*P io_in[10] I
*I *419:io_in[10] I *D aes_core
*CAP
1 io_in[10] 0.00155423
2 *419:io_in[10] 0.000346985
3 *2:17 0.0108631
4 *2:16 0.0105161
5 *2:14 0.0058688
6 *2:13 0.00742303
7 *2:13 *419:wbs_adr_i[9] 0
8 *2:13 *41:11 0.00276191
9 *2:13 *73:17 0.00828572
10 *2:14 *13:11 0.00842894
11 *2:14 *33:8 0.0377461
12 *2:14 *73:11 0.05041
13 *2:14 *133:19 0.163689
14 *2:17 *73:8 0.00468345
15 *2:17 *236:10 0.00901429
16 *2:17 *266:24 0.00625841
17 *2:17 *293:14 0.102766
18 *2:17 *367:22 0.031064
19 *2:17 *368:14 0.0276656
20 *2:17 *384:11 0
21 *2:17 *399:8 0.100777
*RES
1 io_in[10] *2:13 34.965 
2 *2:13 *2:14 277.11 
3 *2:14 *2:16 4.5 
4 *2:16 *2:17 344.43 
5 *2:17 *419:io_in[10] 7.425 
*END

*D_NET *3 0.72314
*CONN
*P io_in[11] I
*I *419:io_in[11] I *D aes_core
*CAP
1 io_in[11] 0.000817491
2 *419:io_in[11] 0.000484622
3 *3:14 0.00627979
4 *3:13 0.00579517
5 *3:11 0.00356808
6 *3:10 0.00356808
7 *3:8 0.0042846
8 *3:7 0.00510209
9 *3:7 *419:la_data_in[29] 0
10 *3:8 *5:8 0.0874604
11 *3:8 *6:13 0.0152826
12 *3:8 *9:11 0.00988073
13 *3:8 *34:8 0.0157736
14 *3:8 *41:11 0.0290307
15 *3:8 *43:17 0.0332043
16 *3:11 *42:9 0.126764
17 *3:11 *61:9 0.0028598
18 *3:11 *179:9 0.075412
19 *3:11 *181:11 0.022609
20 *3:11 *260:14 0.261424
21 *3:14 *43:13 0.00263916
22 *3:14 *82:11 0.0109003
23 *3:14 *200:11 0
*RES
1 io_in[11] *3:7 10.485 
2 *3:7 *3:8 220.05 
3 *3:8 *3:10 4.5 
4 *3:10 *3:11 390.87 
5 *3:11 *3:13 4.5 
6 *3:13 *3:14 91.53 
7 *3:14 *419:io_in[11] 17.28 
*END

*D_NET *4 0.0882411
*CONN
*P io_in[12] I
*I *419:io_in[12] I *D aes_core
*CAP
1 io_in[12] 0.00169295
2 *419:io_in[12] 0.000761356
3 *4:8 0.00999526
4 *4:7 0.0109268
5 *419:io_in[12] *42:9 0
6 *419:io_in[12] *181:11 0
7 *419:io_in[12] *208:9 0.00017611
8 *419:io_in[12] *225:9 0.000870153
9 *4:7 *419:wbs_adr_i[28] 0
10 *4:8 *6:16 0.00042963
11 *4:8 *7:11 0
12 *4:8 *81:11 0.0582456
13 *4:8 *174:17 0.00514329
*RES
1 io_in[12] *4:7 18.765 
2 *4:7 *4:8 153.99 
3 *4:8 *419:io_in[12] 13.185 
*END

*D_NET *5 0.518257
*CONN
*P io_in[13] I
*I *419:io_in[13] I *D aes_core
*CAP
1 io_in[13] 0.000712914
2 *419:io_in[13] 0.000663891
3 *5:16 0.0019065
4 *5:11 0.0300831
5 *5:10 0.0288405
6 *5:8 0.00376887
7 *5:7 0.00448178
8 *5:7 *419:io_in[34] 0.000135996
9 *5:8 *34:8 0.203338
10 *5:8 *41:11 0.0102907
11 *5:8 *73:17 0.0010081
12 *5:8 *78:17 0.0742032
13 *5:8 *114:17 0.000368254
14 *5:11 *144:16 0.014585
15 *5:11 *149:8 0.00125894
16 *5:11 *188:11 0.00839903
17 *5:11 *274:16 0.00252045
18 *5:11 *349:16 0
19 *5:11 *382:11 0
20 *5:16 *235:11 0.0275577
21 *5:16 *271:25 0.0154053
22 *5:16 *275:17 0.00126843
23 *3:8 *5:8 0.0874604
*RES
1 io_in[13] *5:7 10.665 
2 *5:7 *5:8 298.17 
3 *5:8 *5:10 4.5 
4 *5:10 *5:11 391.41 
5 *5:11 *5:16 49.41 
6 *5:16 *419:io_in[13] 13.5 
*END

*D_NET *6 0.177955
*CONN
*P io_in[14] I
*I *419:io_in[14] I *D aes_core
*CAP
1 io_in[14] 0.00171305
2 *419:io_in[14] 0.000439161
3 *6:17 0.00156838
4 *6:16 0.00173481
5 *6:13 0.00231864
6 *6:13 io_out[14] 0.000230805
7 *6:13 *34:8 0.0152826
8 *6:16 *7:11 0
9 *6:16 *174:17 0.00146074
10 *6:17 *73:8 0.00121853
11 *6:17 *168:14 0.060118
12 *6:17 *174:20 0.073671
13 *6:17 *378:18 0.00248679
14 *3:8 *6:13 0.0152826
15 *4:8 *6:16 0.00042963
*RES
1 io_in[14] *6:13 49.725 
2 *6:13 *6:16 15.21 
3 *6:16 *6:17 106.65 
4 *6:17 *419:io_in[14] 8.325 
*END

*D_NET *7 0.129948
*CONN
*P io_in[15] I
*I *419:io_in[15] I *D aes_core
*CAP
1 io_in[15] 0.00146785
2 *419:io_in[15] 0.000916889
3 *7:11 0.00786103
4 *7:10 0.00841199
5 *7:10 io_oeb[14] 0
6 *7:10 *219:8 3.41934e-05
7 *7:11 *81:11 0.00163873
8 *7:11 *83:11 0.099981
9 *7:11 *228:8 0.00963599
10 *4:8 *7:11 0
11 *6:16 *7:11 0
*RES
1 io_in[15] *7:10 23.355 
2 *7:10 *7:11 146.61 
3 *7:11 *419:io_in[15] 11.925 
*END

*D_NET *8 0.229266
*CONN
*P io_in[16] I
*I *419:io_in[16] I *D aes_core
*CAP
1 io_in[16] 0.000919319
2 *419:io_in[16] 0.00105997
3 *8:11 0.0225677
4 *8:10 0.0215077
5 *8:8 0.013735
6 *8:7 0.0146543
7 *8:7 *60:9 0.00133799
8 *8:8 *30:19 0.00580251
9 *8:8 *56:8 0.116444
10 *8:8 *95:8 0.00261113
11 *8:8 *156:36 0.0138639
12 *8:8 *189:14 0.00733602
13 *8:8 *342:16 0
14 *8:11 *171:11 0.00742646
*RES
1 io_in[16] *8:7 16.425 
2 *8:7 *8:8 276.93 
3 *8:8 *8:10 4.5 
4 *8:10 *8:11 214.47 
5 *8:11 *419:io_in[16] 22.68 
*END

*D_NET *9 0.26937
*CONN
*P io_in[17] I
*I *419:io_in[17] I *D aes_core
*CAP
1 io_in[17] 0.00166154
2 *419:io_in[17] 0.00237281
3 *9:11 0.00810731
4 *9:10 0.00573451
5 *9:8 0.0109313
6 *9:7 0.0125928
7 *9:7 *56:7 0
8 *9:8 *34:11 0.0519946
9 *9:8 *43:14 5.43985e-05
10 *9:8 *46:8 0.0188375
11 *9:8 *219:8 0
12 *9:8 *379:14 0
13 *9:11 *28:8 0.0993673
14 *9:11 *34:8 0
15 *9:11 *41:11 0.00393828
16 *9:11 *43:17 0.00588057
17 *9:11 *51:14 0.0235683
18 *9:11 *73:17 0.0144233
19 *1:11 *9:8 2.48679e-05
20 *3:8 *9:11 0.00988073
*RES
1 io_in[17] *9:7 19.125 
2 *9:7 *9:8 227.07 
3 *9:8 *9:10 4.5 
4 *9:10 *9:11 249.39 
5 *9:11 *419:io_in[17] 23.355 
*END

*D_NET *10 0.10357
*CONN
*P io_in[18] I
*I *419:io_in[18] I *D aes_core
*CAP
1 io_in[18] 0.000469609
2 *419:io_in[18] 0.00123076
3 *10:8 0.00171102
4 *10:7 0.000949869
5 *419:io_in[18] *143:14 2.64222e-05
6 *419:io_in[18] *144:19 0.00269241
7 *419:io_in[18] *156:29 0.00754921
8 *419:io_in[18] *181:11 0.000176147
9 *419:io_in[18] *250:23 9.15731e-05
10 *419:io_in[18] *285:11 0.0129503
11 *10:8 *187:10 0.0378614
12 *10:8 *305:16 0.0378614
*RES
1 io_in[18] *10:7 8.325 
2 *10:7 *10:8 54.81 
3 *10:8 *419:io_in[18] 41.625 
*END

*D_NET *11 0.168785
*CONN
*P io_in[19] I
*I *419:io_in[19] I *D aes_core
*CAP
1 io_in[19] 0.00250203
2 *419:io_in[19] 0.00163507
3 *11:14 0.0233096
4 *11:13 0.0216745
5 *11:11 0.00250203
6 *11:11 *15:8 0.0194591
7 *11:11 *385:10 0
8 *11:14 io_oeb[14] 0.0155269
9 *11:14 io_oeb[16] 0
10 *11:14 io_oeb[18] 0
11 *11:14 *419:wbs_dat_i[19] 0
12 *11:14 *119:16 0
13 *11:14 *141:22 0.0159154
14 *11:14 *156:36 0
15 *11:14 *184:8 0.00402859
16 *11:14 *252:16 0.0622317
*RES
1 io_in[19] *11:11 46.485 
2 *11:11 *11:13 4.5 
3 *11:13 *11:14 388.17 
4 *11:14 *419:io_in[19] 19.125 
*END

*D_NET *12 0.421642
*CONN
*P io_in[1] I
*I *419:io_in[1] I *D aes_core
*CAP
1 io_in[1] 0.000280649
2 *419:io_in[1] 0.00209887
3 *12:16 0.0679034
4 *12:15 0.0658045
5 *12:13 0.0395544
6 *12:11 0.039835
7 *12:13 *245:16 0
8 *12:16 *48:11 0.0118455
9 *12:16 *161:19 0.000761059
10 *12:16 *216:11 0.191676
11 *12:16 *278:19 0.00188219
*RES
1 io_in[1] *12:11 2.655 
2 *12:11 *12:13 413.01 
3 *12:13 *12:15 4.5 
4 *12:15 *12:16 787.59 
5 *12:16 *419:io_in[1] 33.48 
*END

*D_NET *13 1.03406
*CONN
*P io_in[20] I
*I *419:io_in[20] I *D aes_core
*CAP
1 io_in[20] 0.000194391
2 *419:io_in[20] 0.00309055
3 *13:11 0.0194894
4 *13:10 0.0163988
5 *13:8 0.00998379
6 *13:7 0.0101782
7 *13:8 *51:17 0.0328664
8 *13:8 *316:16 0.279946
9 *13:8 *358:16 0.348461
10 *13:8 *362:14 0.00248679
11 *13:11 *73:11 3.58025e-05
12 *13:11 *133:19 0.192045
13 *13:11 *230:10 0.110292
14 *1:8 *13:11 0.000165714
15 *2:14 *13:11 0.00842894
*RES
1 io_in[20] *13:7 6.165 
2 *13:7 *13:8 551.43 
3 *13:8 *13:10 4.5 
4 *13:10 *13:11 337.95 
5 *13:11 *419:io_in[20] 27.135 
*END

*D_NET *14 0.205207
*CONN
*P io_in[21] I
*I *419:io_in[21] I *D aes_core
*CAP
1 io_in[21] 0.00085149
2 *419:io_in[21] 7.71706e-05
3 *14:14 0.024754
4 *14:13 0.0246768
5 *14:11 0.0121799
6 *14:10 0.0130314
7 *14:10 *15:8 0.000806911
8 *14:10 *91:16 0.0011066
9 *14:11 *92:13 0
10 *14:11 *368:11 0.127723
*RES
1 io_in[21] *14:10 22.815 
2 *14:10 *14:11 202.23 
3 *14:11 *14:13 4.5 
4 *14:13 *14:14 257.85 
5 *14:14 *419:io_in[21] 9.81 
*END

*D_NET *15 0.225538
*CONN
*P io_in[22] I
*I *419:io_in[22] I *D aes_core
*CAP
1 io_in[22] 0.000702579
2 *419:io_in[22] 0.00201538
3 *15:8 0.0211128
4 *15:7 0.0198
5 *15:8 io_out[18] 0.00103612
6 *15:8 *84:14 0.0562637
7 *15:8 *91:16 0
8 *15:8 *327:16 0.104341
9 *15:8 *385:10 0
10 *11:11 *15:8 0.0194591
11 *14:10 *15:8 0.000806911
*RES
1 io_in[22] *15:7 11.025 
2 *15:7 *15:8 453.15 
3 *15:8 *419:io_in[22] 21.825 
*END

*D_NET *16 0.104163
*CONN
*P io_in[23] I
*I *419:io_in[23] I *D aes_core
*CAP
1 io_in[23] 0.00382413
2 *419:io_in[23] 7.71706e-05
3 *16:22 0.0425834
4 *16:21 0.0455607
5 *16:18 0.00567381
6 *16:15 0.00644351
*RES
1 io_in[23] *16:15 42.165 
2 *16:15 *16:18 32.85 
3 *16:18 *16:21 34.83 
4 *16:21 *16:22 452.43 
5 *16:22 *419:io_in[23] 9.81 
*END

*D_NET *17 0.528293
*CONN
*P io_in[24] I
*I *419:io_in[24] I *D aes_core
*CAP
1 io_in[24] 0.000611329
2 *419:io_in[24] 0.00076051
3 *17:17 0.0252679
4 *17:16 0.0245074
5 *17:14 0.0101403
6 *17:13 0.0101403
7 *17:11 0.0389548
8 *17:10 0.0389548
9 *17:8 0.0293557
10 *17:7 0.029967
11 *17:14 *305:13 0
12 *17:17 *419:la_data_in[32] 0.000326391
13 *17:17 *419:la_oenb[40] 0.000195835
14 *17:17 *419:wbs_adr_i[6] 0.000475599
15 *17:17 *419:wbs_adr_i[7] 0.000121226
16 *17:17 *53:8 0
17 *17:17 *100:10 0.000158533
18 *17:17 *114:8 0.00018884
19 *17:17 *160:8 0.0588744
20 *17:17 *323:24 0.00016475
21 *17:17 *388:10 0.000953268
22 *17:17 *390:10 0.000233137
23 *17:17 *408:8 0.257195
24 *17:17 *410:8 0.000746036
*RES
1 io_in[24] *17:7 10.665 
2 *17:7 *17:8 293.13 
3 *17:8 *17:10 4.5 
4 *17:10 *17:11 415.89 
5 *17:11 *17:13 4.5 
6 *17:13 *17:14 100.17 
7 *17:14 *17:16 4.5 
8 *17:16 *17:17 467.37 
9 *17:17 *419:io_in[24] 11.025 
*END

*D_NET *18 0.751222
*CONN
*P io_in[25] I
*I *419:io_in[25] I *D aes_core
*CAP
1 io_in[25] 0.000237175
2 *419:io_in[25] 0.000776066
3 *18:22 0.012448
4 *18:21 0.0116719
5 *18:19 0.00675239
6 *18:18 0.00675239
7 *18:16 0.0047096
8 *18:15 0.0047096
9 *18:13 0.0529483
10 *18:11 0.0531855
11 *18:13 *351:16 0
12 *18:16 *82:11 0.00497655
13 *18:16 *86:12 0
14 *18:16 *359:13 0.0107408
15 *18:19 *21:19 0.256823
16 *18:19 *26:19 0
17 *18:19 *45:8 0.00377992
18 *18:19 *82:14 0.000344524
19 *18:19 *129:14 0.194156
20 *18:19 *214:8 0.000721124
21 *18:22 *419:io_in[32] 0.0141778
22 *18:22 *59:8 0.0368868
23 *18:22 *137:17 0.00191492
24 *18:22 *181:10 0.0157736
25 *18:22 *219:11 0.0382739
26 *18:22 *282:17 0.0115386
27 *18:22 *289:23 0.00103111
28 *18:22 *379:17 0.00589207
*RES
1 io_in[25] *18:11 2.295 
2 *18:11 *18:13 565.11 
3 *18:13 *18:15 4.5 
4 *18:15 *18:16 65.79 
5 *18:16 *18:18 4.5 
6 *18:18 *18:19 380.43 
7 *18:19 *18:21 4.5 
8 *18:21 *18:22 303.75 
9 *18:22 *419:io_in[25] 9.765 
*END

*D_NET *19 0.486404
*CONN
*P io_in[26] I
*I *419:io_in[26] I *D aes_core
*CAP
1 io_in[26] 0.00010158
2 *419:io_in[26] 0.00116445
3 *19:19 0.0305472
4 *19:18 0.0293828
5 *19:16 0.0261786
6 *19:15 0.0261786
7 *19:13 0.037602
8 *19:11 0.0377036
9 *419:io_in[26] *112:11 0.00010127
10 *19:16 *303:13 0
11 *19:19 *94:8 0.285172
12 *19:19 *109:10 0.00192722
13 *19:19 *151:16 0.0103447
14 *19:19 *336:16 0
*RES
1 io_in[26] *19:11 1.215 
2 *19:11 *19:13 403.11 
3 *19:13 *19:15 4.5 
4 *19:15 *19:16 259.47 
5 *19:16 *19:18 4.5 
6 *19:18 *19:19 529.47 
7 *19:19 *419:io_in[26] 14.985 
*END

*D_NET *20 0.144899
*CONN
*P io_in[27] I
*I *419:io_in[27] I *D aes_core
*CAP
1 io_in[27] 0.000310538
2 *419:io_in[27] 7.8142e-05
3 *20:19 0.0414729
4 *20:18 0.0413948
5 *20:16 0.0162259
6 *20:15 0.0162259
7 *20:13 0.0144401
8 *20:11 0.0147506
9 *20:16 *412:17 0
*RES
1 io_in[27] *20:11 2.835 
2 *20:11 *20:13 138.51 
3 *20:13 *20:15 4.5 
4 *20:15 *20:16 161.91 
5 *20:16 *20:18 4.5 
6 *20:18 *20:19 430.83 
7 *20:19 *419:io_in[27] 9.81 
*END

*D_NET *21 0.578594
*CONN
*P io_in[28] I
*I *419:io_in[28] I *D aes_core
*CAP
1 io_in[28] 0.000167681
2 *419:io_in[28] 0.000713953
3 *21:19 0.00611995
4 *21:18 0.005406
5 *21:16 0.0273984
6 *21:15 0.0273984
7 *21:13 0.0529543
8 *21:11 0.053122
9 *21:16 *127:11 0
10 *21:19 *22:11 0.00166615
11 *21:19 *65:8 0.0803853
12 *21:19 *82:14 0.0235623
13 *21:19 *129:14 0.0102786
14 *21:19 *214:8 0.0325976
15 *18:19 *21:19 0.256823
*RES
1 io_in[28] *21:11 1.755 
2 *21:11 *21:13 508.41 
3 *21:13 *21:15 4.5 
4 *21:15 *21:16 270.81 
5 *21:16 *21:18 4.5 
6 *21:18 *21:19 428.49 
7 *21:19 *419:io_in[28] 10.485 
*END

*D_NET *22 0.527744
*CONN
*P io_in[29] I
*I *419:io_in[29] I *D aes_core
*CAP
1 io_in[29] 0.0332466
2 *419:io_in[29] 0.000751698
3 *22:11 0.00588747
4 *22:10 0.00513577
5 *22:8 0.0342605
6 *22:7 0.0342605
7 *22:5 0.0332466
8 *22:5 *338:22 0.0205696
9 *22:8 *49:17 0
10 *22:11 *26:19 0
11 *22:11 *45:8 0.0873486
12 *22:11 *47:10 0.00273547
13 *22:11 *65:8 0.0065278
14 *22:11 *66:8 0.0975441
15 *22:11 *129:14 0.164563
16 *21:19 *22:11 0.00166615
*RES
1 io_in[29] *22:5 443.565 
2 *22:5 *22:7 4.5 
3 *22:7 *22:8 338.85 
4 *22:8 *22:10 4.5 
5 *22:10 *22:11 315.09 
6 *22:11 *419:io_in[29] 11.025 
*END

*D_NET *23 0.220348
*CONN
*P io_in[2] I
*I *419:io_in[2] I *D aes_core
*CAP
1 io_in[2] 0.000215438
2 *419:io_in[2] 0.0011027
3 *23:16 0.044793
4 *23:15 0.0436903
5 *23:13 0.0386204
6 *23:11 0.0388358
7 *23:16 *171:11 0.05309
*RES
1 io_in[2] *23:11 2.115 
2 *23:11 *23:13 402.21 
3 *23:13 *23:15 4.5 
4 *23:15 *23:16 465.75 
5 *23:16 *419:io_in[2] 22.68 
*END

*D_NET *24 0.129189
*CONN
*P io_in[30] I
*I *419:io_in[30] I *D aes_core
*CAP
1 io_in[30] 0.000237175
2 *419:io_in[30] 7.71706e-05
3 *24:19 0.0356888
4 *24:18 0.0356117
5 *24:16 0.00994406
6 *24:15 0.00994406
7 *24:13 0.0187242
8 *24:11 0.0189614
9 *24:13 *103:11 0
10 *24:13 *360:16 0
*RES
1 io_in[30] *24:11 2.295 
2 *24:11 *24:13 197.91 
3 *24:13 *24:15 4.5 
4 *24:15 *24:16 98.55 
5 *24:16 *24:18 4.5 
6 *24:18 *24:19 371.43 
7 *24:19 *419:io_in[30] 9.81 
*END

*D_NET *25 0.871849
*CONN
*P io_in[31] I
*I *419:io_in[31] I *D aes_core
*CAP
1 io_in[31] 0.00327743
2 *419:io_in[31] 0.000935708
3 *25:19 0.0223861
4 *25:18 0.0214504
5 *25:16 0.0479357
6 *25:15 0.0512131
7 *25:19 *26:19 0.439602
8 *25:19 *43:14 0.0124339
9 *25:19 *66:8 0
10 *25:19 *335:8 0.272614
*RES
1 io_in[31] *25:15 38.925 
2 *25:15 *25:16 478.17 
3 *25:16 *25:18 4.5 
4 *25:18 *25:19 714.69 
5 *25:19 *419:io_in[31] 12.645 
*END

*D_NET *26 0.803459
*CONN
*P io_in[32] I
*I *419:io_in[32] I *D aes_core
*CAP
1 io_in[32] 0.000310538
2 *419:io_in[32] 0.000985946
3 *26:19 0.0431836
4 *26:18 0.0421976
5 *26:16 0.0550422
6 *26:15 0.0550422
7 *26:13 0.010648
8 *26:11 0.0109585
9 *419:io_in[32] *219:11 0.000179013
10 *419:io_in[32] *379:17 0.0154053
11 *26:16 *409:14 0
12 *26:19 *43:14 0.00550823
13 *26:19 *45:8 0
14 *26:19 *47:10 0.00135841
15 *26:19 *66:8 0
16 *1:11 *26:19 0.108859
17 *18:19 *26:19 0
18 *18:22 *419:io_in[32] 0.0141778
19 *22:11 *26:19 0
20 *25:19 *26:19 0.439602
*RES
1 io_in[32] *26:11 2.835 
2 *26:11 *26:13 111.51 
3 *26:13 *26:15 4.5 
4 *26:15 *26:16 548.19 
5 *26:16 *26:18 4.5 
6 *26:18 *26:19 833.85 
7 *26:19 *419:io_in[32] 36.675 
*END

*D_NET *27 0.638
*CONN
*P io_in[33] I
*I *419:io_in[33] I *D aes_core
*CAP
1 io_in[33] 0.00413017
2 *419:io_in[33] 0.000668275
3 *27:19 0.0202329
4 *27:18 0.0195646
5 *27:16 0.0614598
6 *27:15 0.06559
7 *27:16 *349:13 0
8 *27:19 *65:8 0.377681
9 *27:19 *66:8 0.000746038
10 *27:19 *82:14 0.0302767
11 *27:19 *92:14 0
12 *27:19 *337:16 0.0576498
*RES
1 io_in[33] *27:15 47.565 
2 *27:15 *27:16 613.35 
3 *27:16 *27:18 4.5 
4 *27:18 *27:19 568.35 
5 *27:19 *419:io_in[33] 10.125 
*END

*D_NET *28 0.563776
*CONN
*P io_in[34] I
*I *419:io_in[34] I *D aes_core
*CAP
1 io_in[34] 0.0917836
2 *419:io_in[34] 0.00198118
3 *28:8 0.0273488
4 *28:7 0.0253677
5 *28:5 0.0917836
6 *28:8 *34:8 0
7 *28:8 *35:8 0.00458477
8 *28:8 *51:14 0.136193
9 *28:8 *69:10 0
10 *28:8 *73:17 0.0591662
11 *28:8 *108:8 0
12 *28:8 *186:10 0.0260642
13 *5:7 *419:io_in[34] 0.000135996
14 *9:11 *28:8 0.0993673
*RES
1 io_in[34] *28:5 958.185 
2 *28:5 *28:7 4.5 
3 *28:7 *28:8 580.77 
4 *28:8 *419:io_in[34] 22.545 
*END

*D_NET *29 0.224772
*CONN
*P io_in[35] I
*I *419:io_in[35] I *D aes_core
*CAP